sensitivities/tests/test_data/6_bus_system.xiidm
<?xml version="1.0" encoding="UTF-8"?>
<iidm:network xmlns:iidm="http://www.powsybl.org/schema/iidm/1_4" xmlns:apc="http://www.itesla_project.eu/schema/iidm/ext/active_power_control/1_0" xmlns:as="http://www.itesla_project.eu/schema/iidm/ext/active-season/1_0" xmlns:hapc="http://www.itesla_project.eu/schema/iidm/ext/hvdc_angle_droop_active_power_control/1_0" id="situ_12N" caseDate="2014-02-12T13:19:17+01:00" forecastDistance="0" sourceFormat="CIM1">
    <iidm:substation id="ZEUSP6_S" name="ZEUSP6" country="ES" tso="RTE">
        <iidm:voltageLevel id="NIREE6" name="NIREEP6" nominalV="225" lowVoltageLimit="220" highVoltageLimit="245" topologyKind="BUS_BREAKER">
            <iidm:busBreakerTopology>
                <iidm:bus id="NIREEP61" v="229.99999997066061" angle="3.8902854382794692"/>
            </iidm:busBreakerTopology>
            <iidm:generator id="ZEUS6G1_NGU_SM" name="ZEUS6G1" energySource="NUCLEAR" minP="400" maxP="2000" voltageRegulatorOn="true" targetP="577" targetV="230" targetQ="0" bus="NIREEP61" connectableBus="NIREEP61" p="-578.09161462720249" q="40.199725400867244">
                <iidm:reactiveCapabilityCurve>
                    <iidm:point p="398" minQ="-5" maxQ="360"/>
                    <iidm:point p="1498" minQ="-220" maxQ="200"/>
                </iidm:reactiveCapabilityCurve>
            </iidm:generator>
            <iidm:generator id="ZEUS6G1C_NGU_SM" name="ZEUS6G1C" energySource="HYDRO" minP="-2000" maxP="2000" voltageRegulatorOn="true" targetP="0" targetV="230" targetQ="0" bus="NIREEP61" connectableBus="NIREEP61" p="-0" q="184.26938564552052">
                <iidm:reactiveCapabilityCurve>
                    <iidm:point p="-2000" minQ="-300" maxQ="200"/>
                    <iidm:point p="0" minQ="-300" maxQ="300"/>
                    <iidm:point p="2000" minQ="-300" maxQ="200"/>
                </iidm:reactiveCapabilityCurve>
            </iidm:generator>
            <iidm:load id="ZEUSP6_ZEUS1" name="ZEUSP6_ZEUS1" loadType="UNDEFINED" p0="1000" q0="0" bus="NIREEP61" connectableBus="NIREEP61" p="0" q="0"/>
        </iidm:voltageLevel>
        <iidm:voltageLevel id="ZEUSP6_S_VL6" name="ZEUSP6" nominalV="225" lowVoltageLimit="220" highVoltageLimit="245" topologyKind="BUS_BREAKER">
            <iidm:busBreakerTopology>
                <iidm:bus id="ZEUSP6_S_VL6_TN2" v="235.18475736412509" angle="-0.53867590996495285"/>
                <iidm:bus id="ZEUSP6_S_VL6_TN1" v="235.18475736412509" angle="-0.53867590996495285"/>
                <iidm:switch id="ZEUSP6_C21" kind="BREAKER" retained="true" open="false" bus1="ZEUSP6_S_VL6_TN2" bus2="ZEUSP6_S_VL6_TN1"/>
            </iidm:busBreakerTopology>
        </iidm:voltageLevel>
        <iidm:twoWindingsTransformer id="NIREEL61ZEUS_ACLS" r="0.080000102519989014" x="8.3600072860717773" g="0" b="0" ratedU1="225" ratedU2="225" bus1="NIREEP61" connectableBus1="NIREEP61" voltageLevelId1="NIREE6" bus2="ZEUSP6_S_VL6_TN1" connectableBus2="ZEUSP6_S_VL6_TN1" voltageLevelId2="ZEUSP6_S_VL6" p1="466.12068418150187" q1="-119.78605508530558" p2="-465.74612745762221" q2="158.92721720804451">
            <iidm:phaseTapChanger lowTapPosition="0" tapPosition="16" targetDeadband="0" regulationMode="CURRENT_LIMITER" regulationValue="1537.0347166426038" regulating="true">
                <iidm:terminalRef id="NIREEL61ZEUS_ACLS" side="ONE"/>
                <iidm:step r="72.599555969238281" x="72.599563598632812" g="0" b="0" rho="1" alpha="-50"/>
                <iidm:step r="66.021034240722656" x="66.021034240722656" g="0" b="0" rho="1" alpha="-47.200000762939453"/>
                <iidm:step r="59.920902252197266" x="59.920902252197266" g="0" b="0" rho="1" alpha="-44.400001525878906"/>
                <iidm:step r="53.461677551269531" x="53.461669921875" g="0" b="0" rho="1" alpha="-41.5"/>
                <iidm:step r="48.318267822265625" x="48.318267822265625" g="0" b="0" rho="1" alpha="-38.599998474121094"/>
                <iidm:step r="42.338008880615234" x="42.3380126953125" g="0" b="0" rho="1" alpha="-35.599998474121094"/>
                <iidm:step r="37.433792114257812" x="37.433795928955078" g="0" b="0" rho="1" alpha="-32.5"/>
                <iidm:step r="32.649471282958984" x="32.649467468261719" g="0" b="0" rho="1" alpha="-29.399999618530273"/>
                <iidm:step r="29.30024528503418" x="29.300249099731445" g="0" b="0" rho="1" alpha="-26.299999237060547"/>
                <iidm:step r="24.874410629272461" x="24.874418258666992" g="0" b="0" rho="1" alpha="-23.100000381469727"/>
                <iidm:step r="20.6883544921875" x="20.688360214233398" g="0" b="0" rho="1" alpha="-19.799999237060547"/>
                <iidm:step r="16.980066299438477" x="16.980066299438477" g="0" b="0" rho="1" alpha="-16.600000381469727"/>
                <iidm:step r="13.272382736206055" x="13.272385597229004" g="0" b="0" rho="1" alpha="-13.300000190734863"/>
                <iidm:step r="10.760626792907715" x="10.76063060760498" g="0" b="0" rho="1" alpha="-10"/>
                <iidm:step r="8.4874477386474609" x="8.4874544143676758" g="0" b="0" rho="1" alpha="-6.6999998092651367"/>
                <iidm:step r="7.5307116508483887" x="7.5307121276855469" g="0" b="0" rho="1" alpha="-3.2999999523162842"/>
                <iidm:step r="6.9330453872680664" x="6.933046817779541" g="0" b="0" rho="1" alpha="0"/>
                <iidm:step r="7.8897914886474609" x="7.8897995948791504" g="0" b="0" rho="1" alpha="3.2999999523162842"/>
                <iidm:step r="9.2056188583374023" x="9.2056188583374023" g="0" b="0" rho="1" alpha="6.6999998092651367"/>
                <iidm:step r="11.119101524353027" x="11.119102478027344" g="0" b="0" rho="1" alpha="10"/>
                <iidm:step r="13.391666412353516" x="13.391663551330566" g="0" b="0" rho="1" alpha="13.300000190734863"/>
                <iidm:step r="16.860780715942383" x="16.860788345336914" g="0" b="0" rho="1" alpha="16.600000381469727"/>
                <iidm:step r="19.731012344360352" x="19.731014251708984" g="0" b="0" rho="1" alpha="19.799999237060547"/>
                <iidm:step r="24.874410629272461" x="24.874418258666992" g="0" b="0" rho="1" alpha="23.100000381469727"/>
                <iidm:step r="29.419538497924805" x="29.419538497924805" g="0" b="0" rho="1" alpha="26.299999237060547"/>
                <iidm:step r="34.562957763671875" x="34.562950134277344" g="0" b="0" rho="1" alpha="29.399999618530273"/>
                <iidm:step r="38.868904113769531" x="38.868900299072266" g="0" b="0" rho="1" alpha="32.5"/>
                <iidm:step r="44.012310028076172" x="44.012306213378906" g="0" b="0" rho="1" alpha="35.599998474121094"/>
                <iidm:step r="48.318267822265625" x="48.318267822265625" g="0" b="0" rho="1" alpha="38.599998474121094"/>
                <iidm:step r="54.896797180175781" x="54.896800994873047" g="0" b="0" rho="1" alpha="41.5"/>
                <iidm:step r="60.279369354248047" x="60.279376983642578" g="0" b="0" rho="1" alpha="44.400001525878906"/>
                <iidm:step r="67.456169128417969" x="67.456169128417969" g="0" b="0" rho="1" alpha="47.200000762939453"/>
                <iidm:step r="73.197837829589844" x="73.197845458984375" g="0" b="0" rho="1" alpha="50"/>
            </iidm:phaseTapChanger>
        </iidm:twoWindingsTransformer>
    </iidm:substation>
    <iidm:substation id="ULYSSP6_S" name="ULYSSP6" country="FR" tso="RTE">
        <iidm:voltageLevel id="ULYSSP6_S_VL6" name="ULYSSP6" nominalV="225" lowVoltageLimit="220" highVoltageLimit="245" topologyKind="BUS_BREAKER">
            <iidm:busBreakerTopology>
                <iidm:bus id="ULYSSP6_S_VL6_TN2" v="235.59603813569638" angle="-1.1863490341323537"/>
                <iidm:bus id="ULYSSP6_S_VL6_TN1" v="235.59603813569638" angle="-1.1863490341323537"/>
                <iidm:switch id="ULYSSP6_C21" kind="BREAKER" retained="true" open="false" bus1="ULYSSP6_S_VL6_TN2" bus2="ULYSSP6_S_VL6_TN1"/>
            </iidm:busBreakerTopology>
            <iidm:generator id="ULYSS6G5_NGU_SM" name="ULYSS6G5" energySource="NUCLEAR" minP="100" maxP="5000" voltageRegulatorOn="true" targetP="577" targetV="230" targetQ="0" bus="ULYSSP6_S_VL6_TN2" connectableBus="ULYSSP6_S_VL6_TN2" p="-245.09161462720255" q="-24.886638235496388">
                <iidm:reactiveCapabilityCurve>
                    <iidm:point p="98" minQ="-5" maxQ="360"/>
                    <iidm:point p="1498" minQ="-220" maxQ="200"/>
                </iidm:reactiveCapabilityCurve>
            </iidm:generator>
            <iidm:generator id="ULYSS6G4_NGU_SM" name="ULYSS6G4" energySource="NUCLEAR" minP="100" maxP="5000" voltageRegulatorOn="true" targetP="577" targetV="230" targetQ="0" bus="ULYSSP6_S_VL6_TN1" connectableBus="ULYSSP6_S_VL6_TN1" p="-245.09161462720255" q="-24.886638235496388">
                <iidm:reactiveCapabilityCurve>
                    <iidm:point p="98" minQ="-5" maxQ="360"/>
                    <iidm:point p="1498" minQ="-220" maxQ="200"/>
                </iidm:reactiveCapabilityCurve>
            </iidm:generator>
            <iidm:load id="ULYSSP6_ULYSS1" name="ULYSSP6_ULYSS1" loadType="UNDEFINED" p0="1000" q0="0" bus="ULYSSP6_S_VL6_TN1" connectableBus="ULYSSP6_S_VL6_TN1" p="999.99977884908594" q="0"/>
        </iidm:voltageLevel>
    </iidm:substation>
    <iidm:substation id="ATHENP7_S" name="ATHENP7" country="FR" tso="RTE">
        <iidm:voltageLevel id="ATHENP6_S_VL6" nominalV="225" lowVoltageLimit="220" highVoltageLimit="245" topologyKind="BUS_BREAKER">
            <iidm:busBreakerTopology>
                <iidm:bus id="ATHENP6_S_VL6_TN1" v="235.85710498250063" angle="-1.1339788117466358"/>
            </iidm:busBreakerTopology>
        </iidm:voltageLevel>
        <iidm:voltageLevel id="ATHENP7_S_VL7" name="ATHENP7" nominalV="380" lowVoltageLimit="390" highVoltageLimit="410" topologyKind="BUS_BREAKER">
            <iidm:busBreakerTopology>
                <iidm:bus id="ATHENP7_S_VL7_TN1" v="401.57292117290268" angle="0"/>
            </iidm:busBreakerTopology>
            <iidm:generator id="ATHEN7G6_NGU_SM" name="ATHEN7G6" energySource="NUCLEAR" minP="100" maxP="5000" voltageRegulatorOn="true" targetP="577" targetV="400" targetQ="0" bus="ATHENP7_S_VL7_TN1" connectableBus="ATHENP7_S_VL7_TN1" p="-245.09161462720255" q="-24.886638235496388">
                <iidm:reactiveCapabilityCurve>
                    <iidm:point p="98" minQ="-5" maxQ="360"/>
                    <iidm:point p="1498" minQ="-220" maxQ="200"/>
                </iidm:reactiveCapabilityCurve>
            </iidm:generator>
        </iidm:voltageLevel>
        <iidm:twoWindingsTransformer id="ATHENY761" r="1" x="71.010000000000005" g="0" b="0" ratedU1="225" ratedU2="380" bus1="ATHENP6_S_VL6_TN1" connectableBus1="ATHENP6_S_VL6_TN1" voltageLevelId1="ATHENP6_S_VL6" bus2="ATHENP7_S_VL7_TN1" connectableBus2="ATHENP7_S_VL7_TN1" voltageLevelId2="ATHENP7_S_VL7" p1="-44.821477782672268" q1="-17.082906363154486" p2="44.835978083184202" q2="18.112572702507261">
            <iidm:ratioTapChanger lowTapPosition="0" tapPosition="0" loadTapChangingCapabilities="false" targetV="230">
                <iidm:step r="0" x="0" g="0" b="0" rho="1"/>
                <iidm:step r="0" x="0" g="0" b="0" rho="0.95599997043609619"/>
                <iidm:step r="0" x="0" g="0" b="0" rho="0.91299998760223389"/>
            </iidm:ratioTapChanger>
        </iidm:twoWindingsTransformer>
    </iidm:substation>
    <iidm:substation id="HADESP7_S" name="HADESP7" country="ES" tso="RTE">
        <iidm:voltageLevel id="HADESP6_S_VL6" nominalV="225" lowVoltageLimit="220" highVoltageLimit="245" topologyKind="BUS_BREAKER">
            <iidm:busBreakerTopology>
                <iidm:bus id="HADESP6_S_VL6_TN1" v="230.37451035672572" angle="3.7182326292733618"/>
            </iidm:busBreakerTopology>
        </iidm:voltageLevel>
        <iidm:voltageLevel id="HADESP7_S_VL7" name="HADESP7" nominalV="380" lowVoltageLimit="390" highVoltageLimit="410" topologyKind="BUS_BREAKER">
            <iidm:busBreakerTopology>
                <iidm:bus id="HADESP7_S_VL7_TN1" v="399.99999999511448" angle="0.76983679479665512"/>
                <iidm:bus id="HADESP7_S_VL7_TN2" v="399.99999999511448" angle="0.76983679479665512"/>
                <iidm:switch id="HADESP7_C21" kind="BREAKER" retained="true" open="false" bus1="HADESP7_S_VL7_TN1" bus2="HADESP7_S_VL7_TN2"/>
            </iidm:busBreakerTopology>
            <iidm:generator id="HADES7G2_NGU_SM" name="HADES7G2" energySource="NUCLEAR" minP="200" maxP="900" voltageRegulatorOn="true" targetP="346" targetV="400" targetQ="0" bus="HADESP7_S_VL7_TN1" connectableBus="HADESP7_S_VL7_TN1" p="-346.65496877632154" q="27.664093554966328">
                <iidm:reactiveCapabilityCurve>
                    <iidm:point p="197" minQ="-230" maxQ="320"/>
                    <iidm:point p="917" minQ="-300" maxQ="230"/>
                </iidm:reactiveCapabilityCurve>
            </iidm:generator>
            <iidm:generator id="HADES7G2C_NGU_SM" name="HADES7G2C" energySource="HYDRO" minP="-2000" maxP="2000" voltageRegulatorOn="true" targetP="0" targetV="400" targetQ="0" bus="HADESP7_S_VL7_TN1" connectableBus="HADESP7_S_VL7_TN1" p="-0" q="27.545257814162728">
                <iidm:reactiveCapabilityCurve>
                    <iidm:point p="-2000" minQ="-300" maxQ="200"/>
                    <iidm:point p="0" minQ="-300" maxQ="300"/>
                    <iidm:point p="2000" minQ="-300" maxQ="200"/>
                </iidm:reactiveCapabilityCurve>
            </iidm:generator>
            <iidm:generator id="HADES7G3_NGU_SM" name="HADES7G3" energySource="NUCLEAR" minP="200" maxP="900" voltageRegulatorOn="true" targetP="346" targetV="400" targetQ="0" bus="HADESP7_S_VL7_TN2" connectableBus="HADESP7_S_VL7_TN2" p="-346.65496877632154" q="27.664093554966328">
                <iidm:reactiveCapabilityCurve>
                    <iidm:point p="197" minQ="-230" maxQ="320"/>
                    <iidm:point p="917" minQ="-300" maxQ="230"/>
                </iidm:reactiveCapabilityCurve>
            </iidm:generator>
        </iidm:voltageLevel>
        <iidm:twoWindingsTransformer id="HADESY761" r="1" x="71.010000000000005" g="0" b="0" ratedU1="225" ratedU2="380" bus1="HADESP6_S_VL6_TN1" connectableBus1="HADESP6_S_VL6_TN1" voltageLevelId1="HADESP6_S_VL6" bus2="HADESP7_S_VL7_TN1" connectableBus2="HADESP7_S_VL7_TN1" voltageLevelId2="HADESP7_S_VL7" p1="111.90789377164883" q1="-58.524164475460935" p2="-111.80254060430312" q2="66.005292888677644">
            <iidm:ratioTapChanger lowTapPosition="0" tapPosition="0" loadTapChangingCapabilities="false" targetV="230">
                <iidm:step r="0" x="0" g="0" b="0" rho="1"/>
                <iidm:step r="0" x="0" g="0" b="0" rho="0.95599997043609619"/>
                <iidm:step r="0" x="0" g="0" b="0" rho="0.91299998760223389"/>
            </iidm:ratioTapChanger>
        </iidm:twoWindingsTransformer>
    </iidm:substation>
    <iidm:substation id="AJAXP7_S" name="AJAXP7" country="ES" tso="RTE">
        <iidm:voltageLevel id="AJAXP7_S_VL7" name="AJAXP7" nominalV="380" lowVoltageLimit="390" highVoltageLimit="410" topologyKind="BUS_BREAKER">
            <iidm:busBreakerTopology>
                <iidm:bus id="AJAXP7_S_VL7_TN1" v="400.00000007620628" angle="-4.1387321494088978"/>
            </iidm:busBreakerTopology>
            <iidm:load id="AJAXP7_AJAX" name="AJAXP7_AJAX5" loadType="UNDEFINED" p0="1000" q0="0" bus="AJAXP7_S_VL7_TN1" connectableBus="AJAXP7_S_VL7_TN1" p="999.99998095568787" q="0"/>
            <iidm:vscConverterStation id="AJAXP7_AJAX_TER_1" name="AJAX_TER_1" voltageRegulatorOn="true" lossFactor="1" voltageSetpoint="400.0" reactivePowerSetpoint="0" bus="AJAXP7_S_VL7_TN1" connectableBus="AJAXP7_S_VL7_TN1" p="-194.09353325309326" q="-48.304617715141703">
                <iidm:reactiveCapabilityCurve>
                    <iidm:point p="-250" minQ="-100" maxQ="100"/>
                    <iidm:point p="0" minQ="-200" maxQ="200"/>
                    <iidm:point p="250" minQ="-100" maxQ="100"/>
                </iidm:reactiveCapabilityCurve>
            </iidm:vscConverterStation>
            <iidm:vscConverterStation id="AJAXP7_AJAX_TER_2" name="AJAX_TER_2" voltageRegulatorOn="false" lossFactor="1" voltageSetpoint="400.0" reactivePowerSetpoint="0" bus="AJAXP7_S_VL7_TN1" connectableBus="AJAXP7_S_VL7_TN1" p="-194.09353325309326" q="-0">
                <iidm:reactiveCapabilityCurve>
                    <iidm:point p="-250" minQ="-100" maxQ="100"/>
                    <iidm:point p="0" minQ="-200" maxQ="200"/>
                    <iidm:point p="250" minQ="-100" maxQ="100"/>
                </iidm:reactiveCapabilityCurve>
            </iidm:vscConverterStation>
        </iidm:voltageLevel>
    </iidm:substation>
    <iidm:substation id="HERAP7_S" name="HERAP7" country="FR" tso="RTE">
        <iidm:voltageLevel id="HERAP7_S_VL7" name="HERAP7" nominalV="380" lowVoltageLimit="390" highVoltageLimit="410" topologyKind="BUS_BREAKER">
            <iidm:busBreakerTopology>
                <iidm:bus id="HERAP7_S_VL7_TN1" v="399.9999998935171" angle="-3.06042233753519"/>
            </iidm:busBreakerTopology>
            <iidm:load id="HERAP7_HERA5" name="HERAP7_HERA5" loadType="UNDEFINED" p0="0" q0="0" bus="HERAP7_S_VL7_TN1" connectableBus="HERAP7_S_VL7_TN1" p="0" q="0"/>
            <iidm:vscConverterStation id="HERAP7_HERA_TER_1" name="HERA_TER_1" voltageRegulatorOn="true" lossFactor="1" voltageSetpoint="400.0" reactivePowerSetpoint="0" bus="HERAP7_S_VL7_TN1" connectableBus="HERAP7_S_VL7_TN1" p="194.09353325309326" q="41.946474165488731">
                <iidm:reactiveCapabilityCurve>
                    <iidm:point p="-250" minQ="-100" maxQ="100"/>
                    <iidm:point p="0" minQ="-200" maxQ="200"/>
                    <iidm:point p="250" minQ="-100" maxQ="100"/>
                </iidm:reactiveCapabilityCurve>
            </iidm:vscConverterStation>
            <iidm:vscConverterStation id="HERAP7_HERA_TER_2" name="HERA_TER_2" voltageRegulatorOn="false" lossFactor="1" voltageSetpoint="400.0" reactivePowerSetpoint="0" bus="HERAP7_S_VL7_TN1" connectableBus="HERAP7_S_VL7_TN1" p="194.09353325309326" q="-0">
                <iidm:reactiveCapabilityCurve>
                    <iidm:point p="-250" minQ="-100" maxQ="100"/>
                    <iidm:point p="0" minQ="-200" maxQ="200"/>
                    <iidm:point p="250" minQ="-100" maxQ="100"/>
                </iidm:reactiveCapabilityCurve>
            </iidm:vscConverterStation>
        </iidm:voltageLevel>
    </iidm:substation>
    <iidm:line id="AJAXL71HADES_ACLS" name="AJAXL71HADES" r="1.5600000000000001" x="22.199999999999999" g1="0" b1="0.00013200000000000001" g2="0" b2="0.00013200000000000001" bus1="HADESP7_S_VL7_TN1" connectableBus1="HADESP7_S_VL7_TN1" voltageLevelId1="HADESP7_S_VL7" bus2="AJAXP7_S_VL7_TN1" connectableBus2="AJAXP7_S_VL7_TN1" voltageLevelId2="AJAXP7_S_VL7" p1="615.50947894146657" q1="-37.939661490860402" p2="-611.81291444950114" q2="48.304617715143337">
        <iidm:currentLimits1 permanentLimit="2822"/>
        <iidm:currentLimits2 permanentLimit="2822">
            <iidm:temporaryLimit name="IT20" acceptableDuration="1200" value="3682"/>
            <iidm:temporaryLimit name="IT10" acceptableDuration="600" value="4258.00048828125"/>
        </iidm:currentLimits2>
    </iidm:line>
    <iidm:line id="HERAL71ATHEN_ACLS" name="HERAL71ATHEN" r="1.5600000000000001" x="22.199999999999999" g1="0" b1="0.00013200000000000001" g2="0" b2="0.00013200000000000001" bus1="ATHENP7_S_VL7_TN1" connectableBus1="ATHENP7_S_VL7_TN1" voltageLevelId1="ATHENP7_S_VL7" bus2="HERAP7_S_VL7_TN1" connectableBus2="HERAP7_S_VL7_TN1" voltageLevelId2="HERAP7_S_VL7" p1="389.61990090377475" q1="5.6116156860834767" p2="-388.18706650618583" q2="-41.946474165488176">
        <iidm:currentLimits1 permanentLimit="2822"/>
        <iidm:currentLimits2 permanentLimit="2822">
            <iidm:temporaryLimit name="IT20" acceptableDuration="1200" value="3682"/>
            <iidm:temporaryLimit name="IT10" acceptableDuration="600" value="4258.00048828125"/>
        </iidm:currentLimits2>
    </iidm:line>
    <iidm:line id="ATHENL61ULYSS_ACLS" name="ATHENL61ULYSS" r="0.34799999999999998" x="2.589" g1="0" b1="0.00022000000000000001" g2="0" b2="0.00022000000000000001" bus1="ULYSSP6_S_VL6_TN1" connectableBus1="ULYSSP6_S_VL6_TN1" voltageLevelId1="ULYSSP6_S_VL6" bus2="ATHENP6_S_VL6_TN1" connectableBus2="ATHENP6_S_VL6_TN1" voltageLevelId2="ATHENP6_S_VL6" p1="-22.404895752180661" q1="-32.947477015447916" p2="22.410738891336091" q2="8.5414531815742638">
        <iidm:currentLimits1 permanentLimit="1890"/>
        <iidm:currentLimits2 permanentLimit="1890">
            <iidm:temporaryLimit name="IT20" acceptableDuration="1200" value="2171"/>
            <iidm:temporaryLimit name="IT10" acceptableDuration="600" value="2345"/>
        </iidm:currentLimits2>
    </iidm:line>
    <iidm:line id="ATHENL62ULYSS_ACLS" name="ATHENL62ULYSS" r="0.34799999999999998" x="2.589" g1="0" b1="0.00022000000000000001" g2="0" b2="0.00022000000000000001" bus1="ULYSSP6_S_VL6_TN2" connectableBus1="ULYSSP6_S_VL6_TN2" voltageLevelId1="ULYSSP6_S_VL6" bus2="ATHENP6_S_VL6_TN1" connectableBus2="ATHENP6_S_VL6_TN1" voltageLevelId2="ATHENP6_S_VL6" p1="-22.404895752180661" q1="-32.947477015447916" p2="22.410738891336091" q2="8.5414531815742638">
        <iidm:currentLimits1 permanentLimit="1890"/>
        <iidm:currentLimits2 permanentLimit="1890">
            <iidm:temporaryLimit name="IT20" acceptableDuration="1200" value="2171"/>
            <iidm:temporaryLimit name="IT10" acceptableDuration="600" value="2345"/>
        </iidm:currentLimits2>
    </iidm:line>
    <iidm:line id="HADESL61NIREE_ACLS" name="HADESL61NIREE" r="0.34799999999999998" x="2.589" g1="0" b1="0.00022000000000000001" g2="0" b2="0.00022000000000000001" bus1="NIREEP61" connectableBus1="NIREEP61" voltageLevelId1="NIREE6" bus2="HADESP6_S_VL6_TN1" connectableBus2="HADESP6_S_VL6_TN1" voltageLevelId2="HADESP6_S_VL6" p1="55.985465222850664" q1="-52.341527980538416" p2="-55.95394688582472" q2="29.262082237728837">
        <iidm:currentLimits1 permanentLimit="1890"/>
        <iidm:currentLimits2 permanentLimit="1890">
            <iidm:temporaryLimit name="IT20" acceptableDuration="1200" value="2171"/>
            <iidm:temporaryLimit name="IT10" acceptableDuration="600" value="2345"/>
        </iidm:currentLimits2>
    </iidm:line>
    <iidm:line id="HADESL62NIREE_ACLS" name="HADESL62NIREE" r="0.34799999999999998" x="2.589" g1="0" b1="0.00022000000000000001" g2="0" b2="0.00022000000000000001" bus1="NIREEP61" connectableBus1="NIREEP61" voltageLevelId1="NIREE6" bus2="HADESP6_S_VL6_TN1" connectableBus2="HADESP6_S_VL6_TN1" voltageLevelId2="HADESP6_S_VL6" p1="55.985465222850664" q1="-52.341527980538416" p2="-55.95394688582472" q2="29.262082237728837">
        <iidm:currentLimits1 permanentLimit="1890"/>
        <iidm:currentLimits2 permanentLimit="1890">
            <iidm:temporaryLimit name="IT20" acceptableDuration="1200" value="2171"/>
            <iidm:temporaryLimit name="IT10" acceptableDuration="600" value="2345"/>
        </iidm:currentLimits2>
    </iidm:line>
    <iidm:line id="ZEUSL61ULYSS_ACLS" name="ZEUSL61ULYSS" r="0.34799999999999998" x="2.589" g1="0" b1="0.00022000000000000001" g2="0" b2="0.00022000000000000001" bus1="ULYSSP6_S_VL6_TN1" connectableBus1="ULYSSP6_S_VL6_TN1" voltageLevelId1="ULYSSP6_S_VL6" bus2="ZEUSP6_S_VL6_TN1" connectableBus2="ZEUSP6_S_VL6_TN1" voltageLevelId2="ZEUSP6_S_VL6" p1="-232.50337904515987" q1="57.834115250944542" p2="232.87306372881145" q2="-79.463608604021246">
        <iidm:currentLimits1 permanentLimit="769.8003589195012"/>
        <iidm:currentLimits2 permanentLimit="769.8003589195012">
            <iidm:temporaryLimit name="IT20" acceptableDuration="1200" value="2171"/>
            <iidm:temporaryLimit name="IT10" acceptableDuration="600" value="1283.0005981991685"/>
        </iidm:currentLimits2>
    </iidm:line>
    <iidm:line id="ZEUSL62ULYSS_ACLS" name="ZEUSL62ULYSS" r="0.34799999999999998" x="2.589" g1="0" b1="0.00022000000000000001" g2="0" b2="0.00022000000000000001" bus1="ULYSSP6_S_VL6_TN2" connectableBus1="ULYSSP6_S_VL6_TN2" voltageLevelId1="ULYSSP6_S_VL6" bus2="ZEUSP6_S_VL6_TN2" connectableBus2="ZEUSP6_S_VL6_TN2" voltageLevelId2="ZEUSP6_S_VL6" p1="-232.50337904515987" q1="57.834115250944542" p2="232.87306372881145" q2="-79.463608604021246">
        <iidm:currentLimits1 permanentLimit="769.8003589195012"/>
        <iidm:currentLimits2 permanentLimit="769.8003589195012">
            <iidm:temporaryLimit name="IT20" acceptableDuration="1200" value="2171"/>
            <iidm:temporaryLimit name="IT10" acceptableDuration="600" value="1283.0005981991685"/>
        </iidm:currentLimits2>
    </iidm:line>
    <iidm:line id="HADESL71ATHEN_ACLS" name="HADESL71ATHEN" r="1.5600000000000001" x="22.199999999999999" g1="0" b1="0.00013200000000000001" g2="0" b2="0.00013200000000000001" bus1="ATHENP7_S_VL7_TN1" connectableBus1="ATHENP7_S_VL7_TN1" voltageLevelId1="ATHENP7_S_VL7" bus2="HADESP7_S_VL7_TN1" connectableBus2="HADESP7_S_VL7_TN1" voltageLevelId2="HADESP7_S_VL7" p1="-94.702369260514615" q1="14.473812202048894" p2="94.801499607739913" q2="-55.469538160955466">
        <iidm:currentLimits1 permanentLimit="455.80284409707303"/>
        <iidm:currentLimits2 permanentLimit="455.80284409707303">
            <iidm:temporaryLimit name="IT20" acceptableDuration="1200" value="3682"/>
            <iidm:temporaryLimit name="IT10" acceptableDuration="600" value="759.671406828455"/>
        </iidm:currentLimits2>
    </iidm:line>
    <iidm:line id="HADESL72ATHEN_ACLS" name="HADESL72ATHEN" r="1.5600000000000001" x="22.199999999999999" g1="0" b1="0.00013200000000000001" g2="0" b2="0.00013200000000000001" bus1="ATHENP7_S_VL7_TN1" connectableBus1="ATHENP7_S_VL7_TN1" voltageLevelId1="ATHENP7_S_VL7" bus2="HADESP7_S_VL7_TN2" connectableBus2="HADESP7_S_VL7_TN2" voltageLevelId2="HADESP7_S_VL7" p1="-94.702369260514615" q1="14.473812202048894" p2="94.801499607739913" q2="-55.469538160955466">
        <iidm:currentLimits1 permanentLimit="455.80284409707303"/>
        <iidm:currentLimits2 permanentLimit="455.80284409707303">
            <iidm:temporaryLimit name="IT20" acceptableDuration="1200" value="3682"/>
            <iidm:temporaryLimit name="IT10" acceptableDuration="600" value="759.671406828455"/>
        </iidm:currentLimits2>
    </iidm:line>
    <iidm:hvdcLine id="HERA9AJAX1" r="0" nominalV="320" convertersMode="SIDE_1_RECTIFIER_SIDE_2_INVERTER" activePowerSetpoint="200" maxP="250" converterStation1="HERAP7_HERA_TER_1" converterStation2="AJAXP7_AJAX_TER_1"/>
    <iidm:hvdcLine id="HERA9AJAX1bis" r="0" nominalV="320" convertersMode="SIDE_1_RECTIFIER_SIDE_2_INVERTER" activePowerSetpoint="200" maxP="250" converterStation1="HERAP7_HERA_TER_2" converterStation2="AJAXP7_AJAX_TER_2"/>
    <iidm:extension id="ATHEN7G6_NGU_SM">
        <apc:activePowerControl participate="true" droop="0.33333333999999998"/>
    </iidm:extension>
    <iidm:extension id="HERA9AJAX1">
        <hapc:hvdcAngleDroopActivePowerControl p0="000" droop="180" enabled="true"/>
    </iidm:extension>
    <iidm:extension id="HERA9AJAX1bis">
        <hapc:hvdcAngleDroopActivePowerControl p0="000" droop="180" enabled="true"/>
    </iidm:extension>
    <iidm:extension id="HADESL72ATHEN_ACLS">
        <as:activeSeason>HIVER1</as:activeSeason>
    </iidm:extension>
    <iidm:extension id="ULYSS6G4_NGU_SM">
        <apc:activePowerControl participate="true" droop="0.33333333999999998"/>
    </iidm:extension>
    <iidm:extension id="ULYSS6G5_NGU_SM">
        <apc:activePowerControl participate="true" droop="0.33333333999999998"/>
    </iidm:extension>
</iidm:network>
